<?xml version="1.0" encoding="UTF-8"?>

<!-- generated on 2025-04-28 18:08:01 by Eclipse SUMO netedit Version 1.19.0
<configuration xmlns:xsi="http://www.w3.org/2001/XMLSchema-instance" xsi:noNamespaceSchemaLocation="http://sumo.dlr.de/xsd/neteditConfiguration.xsd">

    <input>
        <sumo-net-file value="C:\Users\oalami\Desktop\Thesis omar\Network_fin.net.xml"/>
    </input>

    <output>
        <output-file value="C:\Users\oalami\Desktop\Thesis omar\Network_fin.net.xml"/>
        <output.street-names value="true"/>
    </output>

    <processing>
        <geometry.min-radius.fix.railways value="false"/>
        <geometry.max-grade.fix value="false"/>
        <offset.disable-normalization value="true"/>
        <lefthand value="0"/>
    </processing>

    <junctions>
        <no-turnarounds value="true"/>
        <junctions.corner-detail value="5"/>
        <junctions.limit-turn-speed value="5.50"/>
        <rectangular-lane-cut value="0"/>
    </junctions>

    <pedestrian>
        <walkingareas value="0"/>
    </pedestrian>

</configuration>
-->

<net version="1.16" junctionCornerDetail="5" limitTurnSpeed="5.50" xmlns:xsi="http://www.w3.org/2001/XMLSchema-instance" xsi:noNamespaceSchemaLocation="http://sumo.dlr.de/xsd/net_file.xsd">

    <location netOffset="-622857.75,-5796963.23" convBoundary="1980.97,2015.07,11534.46,13055.21" origBoundary="4.627435,52.171210,4.996427,52.464848" projParameter="+proj=utm +zone=31 +ellps=WGS84 +datum=WGS84 +units=m +no_defs"/>

    <type id="highway.motorway" priority="14" numLanes="2" speed="39.44" allow="private emergency authority army vip passenger hov taxi bus coach delivery truck trailer motorcycle evehicle custom1 custom2" oneway="1"/>
    <type id="highway.motorway_link" priority="9" numLanes="1" speed="22.22" allow="private emergency authority army vip passenger hov taxi bus coach delivery truck trailer motorcycle evehicle custom1 custom2" oneway="1"/>

    <edge id=":J10_1_0" function="internal">
        <lane id=":J10_1_0_0" index="0" allow="private emergency authority army vip passenger hov taxi bus coach delivery truck trailer motorcycle evehicle custom1 custom2" speed="32.00" length="3.18" shape="7563.00,2310.62 7566.17,2310.86"/>
    </edge>
    <edge id=":J10_1_1" function="internal">
        <lane id=":J10_1_1_0" index="0" allow="private emergency authority army vip passenger hov taxi bus coach delivery truck trailer motorcycle evehicle custom1 custom2" speed="32.00" length="2.50" shape="7563.06,2313.94 7563.90,2313.93 7564.48,2313.94 7565.06,2313.97 7565.90,2314.05"/>
        <lane id=":J10_1_1_1" index="1" allow="private emergency authority army vip passenger hov taxi bus coach delivery truck trailer motorcycle evehicle custom1 custom2" speed="32.00" length="2.50" shape="7563.12,2317.14 7563.86,2317.13 7564.37,2317.14 7564.88,2317.17 7565.62,2317.23"/>
        <lane id=":J10_1_1_2" index="2" allow="private emergency authority army vip passenger hov taxi bus coach delivery truck trailer motorcycle evehicle custom1 custom2" speed="32.00" length="2.50" shape="7563.18,2320.34 7563.82,2320.33 7564.26,2320.34 7564.70,2320.37 7565.34,2320.42"/>
    </edge>
    <edge id=":J10_2_0" function="internal">
        <lane id=":J10_2_0_0" index="0" allow="private emergency authority army vip passenger hov taxi bus coach delivery truck trailer motorcycle evehicle custom1 custom2" speed="32.00" length="7.91" shape="7764.92,2345.67 7772.65,2347.81"/>
        <lane id=":J10_2_0_1" index="1" allow="private emergency authority army vip passenger hov taxi bus coach delivery truck trailer motorcycle evehicle custom1 custom2" speed="32.00" length="7.91" shape="7764.12,2348.77 7771.74,2350.88"/>
        <lane id=":J10_2_0_2" index="2" allow="private emergency authority army vip passenger hov taxi bus coach delivery truck trailer motorcycle evehicle custom1 custom2" speed="32.00" length="7.91" shape="7763.32,2351.86 7770.83,2353.95"/>
    </edge>
    <edge id=":J10_3_0" function="internal">
        <lane id=":J10_3_0_0" index="0" allow="private emergency authority army vip passenger hov taxi bus coach delivery truck trailer motorcycle evehicle custom1 custom2" speed="32.00" length="3.18" shape="8028.49,2452.07 8031.33,2453.72"/>
        <lane id=":J10_3_0_1" index="1" allow="private emergency authority army vip passenger hov taxi bus coach delivery truck trailer motorcycle evehicle custom1 custom2" speed="32.00" length="3.18" shape="8027.04,2454.93 8029.70,2456.47"/>
    </edge>
    <edge id=":J10_3_2" function="internal">
        <lane id=":J10_3_2_0" index="0" allow="private emergency authority army vip passenger hov taxi bus coach delivery truck trailer motorcycle evehicle custom1 custom2" speed="32.00" length="2.68" shape="8025.55,2457.84 8028.08,2459.23"/>
        <lane id=":J10_3_2_1" index="1" allow="private emergency authority army vip passenger hov taxi bus coach delivery truck trailer motorcycle evehicle custom1 custom2" speed="32.00" length="2.68" shape="8024.10,2460.69 8026.45,2461.98"/>
        <lane id=":J10_3_2_2" index="2" allow="private emergency authority army vip passenger hov taxi bus coach delivery truck trailer motorcycle evehicle custom1 custom2" speed="32.00" length="2.68" shape="8022.64,2463.54 8024.82,2464.74"/>
    </edge>
    <edge id=":J11_1_0" function="internal">
        <lane id=":J11_1_0_0" index="0" allow="private emergency authority army vip passenger hov taxi bus coach delivery truck trailer motorcycle evehicle custom1 custom2" speed="32.00" length="2.72" shape="8426.65,2689.04 8429.02,2690.38"/>
    </edge>
    <edge id=":J11_1_1" function="internal">
        <lane id=":J11_1_1_0" index="0" allow="private emergency authority army vip passenger hov taxi bus coach delivery truck trailer motorcycle evehicle custom1 custom2" speed="32.00" length="3.59" shape="8425.03,2691.80 8425.70,2692.48 8425.87,2693.22 8426.05,2693.97 8426.71,2694.65"/>
        <lane id=":J11_1_1_1" index="1" allow="private emergency authority army vip passenger hov taxi bus coach delivery truck trailer motorcycle evehicle custom1 custom2" speed="32.00" length="3.59" shape="8423.41,2694.56 8424.10,2695.25 8424.30,2696.01 8424.50,2696.77 8425.19,2697.47"/>
        <lane id=":J11_1_1_2" index="2" allow="private emergency authority army vip passenger hov taxi bus coach delivery truck trailer motorcycle evehicle custom1 custom2" speed="32.00" length="3.59" shape="8421.78,2697.31 8422.51,2698.03 8422.73,2698.80 8422.95,2699.57 8423.67,2700.29"/>
        <lane id=":J11_1_1_3" index="3" allow="private emergency authority army vip passenger hov taxi bus coach delivery truck trailer motorcycle evehicle custom1 custom2" speed="32.00" length="3.59" shape="8420.16,2700.07 8420.91,2700.80 8421.15,2701.59 8421.40,2702.37 8422.14,2703.11"/>
    </edge>
    <edge id=":J11_2_0" function="internal">
        <lane id=":J11_2_0_0" index="0" allow="private emergency authority army vip passenger hov taxi bus coach delivery truck trailer motorcycle evehicle custom1 custom2" speed="32.00" length="3.00" shape="8700.43,2853.76 8702.94,2855.39"/>
    </edge>
    <edge id=":J11_2_1" function="internal">
        <lane id=":J11_2_1_0" index="0" allow="private emergency authority army vip passenger hov taxi bus coach delivery truck trailer motorcycle evehicle custom1 custom2" speed="32.00" length="3.00" shape="8698.73,2856.60 8701.30,2858.14"/>
        <lane id=":J11_2_1_1" index="1" allow="private emergency authority army vip passenger hov taxi bus coach delivery truck trailer motorcycle evehicle custom1 custom2" speed="32.00" length="3.00" shape="8697.09,2859.35 8699.67,2860.89"/>
        <lane id=":J11_2_1_2" index="2" allow="private emergency authority army vip passenger hov taxi bus coach delivery truck trailer motorcycle evehicle custom1 custom2" speed="32.00" length="3.00" shape="8695.45,2862.10 8698.03,2863.64"/>
        <lane id=":J11_2_1_3" index="3" allow="private emergency authority army vip passenger hov taxi bus coach delivery truck trailer motorcycle evehicle custom1 custom2" speed="32.00" length="3.00" shape="8693.82,2864.85 8696.39,2866.39"/>
    </edge>
    <edge id=":J11_3_0" function="internal">
        <lane id=":J11_3_0_0" index="0" allow="private emergency authority army vip passenger hov taxi bus coach delivery truck trailer motorcycle evehicle custom1 custom2" speed="32.00" length="8.13" shape="8983.56,3022.74 8985.93,3023.58 8987.81,3023.43 8989.70,3023.27 8992.07,3024.11"/>
        <lane id=":J11_3_0_1" index="1" allow="private emergency authority army vip passenger hov taxi bus coach delivery truck trailer motorcycle evehicle custom1 custom2" speed="32.00" length="8.13" shape="8983.56,3022.74 8990.43,3026.85"/>
        <lane id=":J11_3_0_2" index="2" allow="private emergency authority army vip passenger hov taxi bus coach delivery truck trailer motorcycle evehicle custom1 custom2" speed="32.00" length="8.13" shape="8981.92,3025.49 8988.78,3029.60"/>
        <lane id=":J11_3_0_3" index="3" allow="private emergency authority army vip passenger hov taxi bus coach delivery truck trailer motorcycle evehicle custom1 custom2" speed="32.00" length="8.13" shape="8980.28,3028.24 8987.14,3032.35"/>
        <lane id=":J11_3_0_4" index="4" allow="private emergency authority army vip passenger hov taxi bus coach delivery truck trailer motorcycle evehicle custom1 custom2" speed="32.00" length="8.13" shape="8978.64,3030.98 8985.50,3035.09"/>
        <lane id=":J11_3_0_5" index="5" allow="private emergency authority army vip passenger hov taxi bus coach delivery truck trailer motorcycle evehicle custom1 custom2" speed="32.00" length="8.13" shape="8976.99,3033.73 8983.86,3037.84"/>
    </edge>
    <edge id=":J12_1_0" function="internal">
        <lane id=":J12_1_0_0" index="0" allow="private emergency authority army vip passenger hov taxi bus coach delivery truck trailer motorcycle evehicle custom1 custom2" speed="32.00" length="2.73" shape="9169.52,3135.65 9171.79,3137.07"/>
        <lane id=":J12_1_0_1" index="1" allow="private emergency authority army vip passenger hov taxi bus coach delivery truck trailer motorcycle evehicle custom1 custom2" speed="32.00" length="2.73" shape="9167.77,3138.33 9170.14,3139.81"/>
    </edge>
    <edge id=":J12_1_2" function="internal">
        <lane id=":J12_1_2_0" index="0" allow="private emergency authority army vip passenger hov taxi bus coach delivery truck trailer motorcycle evehicle custom1 custom2" speed="32.00" length="3.11" shape="9166.02,3141.01 9168.45,3142.63"/>
        <lane id=":J12_1_2_1" index="1" allow="private emergency authority army vip passenger hov taxi bus coach delivery truck trailer motorcycle evehicle custom1 custom2" speed="32.00" length="3.11" shape="9164.27,3143.69 9166.80,3145.38"/>
        <lane id=":J12_1_2_2" index="2" allow="private emergency authority army vip passenger hov taxi bus coach delivery truck trailer motorcycle evehicle custom1 custom2" speed="32.00" length="3.11" shape="9162.52,3146.37 9165.16,3148.13"/>
        <lane id=":J12_1_2_3" index="3" allow="private emergency authority army vip passenger hov taxi bus coach delivery truck trailer motorcycle evehicle custom1 custom2" speed="32.00" length="3.11" shape="9160.77,3149.05 9163.51,3150.88"/>
    </edge>
    <edge id=":J12_2_0" function="internal">
        <lane id=":J12_2_0_0" index="0" allow="private emergency authority army vip passenger hov taxi bus coach delivery truck trailer motorcycle evehicle custom1 custom2" speed="32.00" length="2.90" shape="9501.78,3346.68 9504.37,3347.96"/>
    </edge>
    <edge id=":J12_2_1" function="internal">
        <lane id=":J12_2_1_0" index="0" allow="private emergency authority army vip passenger hov taxi bus coach delivery truck trailer motorcycle evehicle custom1 custom2" speed="32.00" length="2.99" shape="9500.42,3349.70 9503.09,3350.89"/>
        <lane id=":J12_2_1_1" index="1" allow="private emergency authority army vip passenger hov taxi bus coach delivery truck trailer motorcycle evehicle custom1 custom2" speed="32.00" length="2.99" shape="9499.10,3352.62 9501.81,3353.82"/>
        <lane id=":J12_2_1_2" index="2" allow="private emergency authority army vip passenger hov taxi bus coach delivery truck trailer motorcycle evehicle custom1 custom2" speed="32.00" length="2.99" shape="9497.79,3355.53 9500.53,3356.76"/>
        <lane id=":J12_2_1_3" index="3" allow="private emergency authority army vip passenger hov taxi bus coach delivery truck trailer motorcycle evehicle custom1 custom2" speed="32.00" length="2.99" shape="9496.47,3358.45 9499.26,3359.69"/>
    </edge>
    <edge id=":J13_1_0" function="internal">
        <lane id=":J13_1_0_0" index="0" allow="private emergency authority army vip passenger hov taxi bus coach delivery truck trailer motorcycle evehicle custom1 custom2" speed="32.00" length="3.10" shape="9868.55,3503.35 9871.30,3504.77"/>
    </edge>
    <edge id=":J13_1_1" function="internal">
        <lane id=":J13_1_1_0" index="0" allow="private emergency authority army vip passenger hov taxi bus coach delivery truck trailer motorcycle evehicle custom1 custom2" speed="32.00" length="2.92" shape="9867.11,3506.20 9869.79,3507.63"/>
        <lane id=":J13_1_1_1" index="1" allow="private emergency authority army vip passenger hov taxi bus coach delivery truck trailer motorcycle evehicle custom1 custom2" speed="32.00" length="2.92" shape="9865.68,3509.06 9868.29,3510.46"/>
        <lane id=":J13_1_1_2" index="2" allow="private emergency authority army vip passenger hov taxi bus coach delivery truck trailer motorcycle evehicle custom1 custom2" speed="32.00" length="2.92" shape="9864.24,3511.92 9866.78,3513.28"/>
        <lane id=":J13_1_1_3" index="3" allow="private emergency authority army vip passenger hov taxi bus coach delivery truck trailer motorcycle evehicle custom1 custom2" speed="32.00" length="2.92" shape="9862.80,3514.78 9865.28,3516.11"/>
    </edge>
    <edge id=":J13_2_0" function="internal">
        <lane id=":J13_2_0_0" index="0" allow="private emergency authority army vip passenger hov taxi bus coach delivery truck trailer motorcycle evehicle custom1 custom2" speed="32.00" length="2.66" shape="10327.50,4009.63 10328.73,4012.00"/>
    </edge>
    <edge id=":J13_2_1" function="internal">
        <lane id=":J13_2_1_0" index="0" allow="private emergency authority army vip passenger hov taxi bus coach delivery truck trailer motorcycle evehicle custom1 custom2" speed="32.00" length="2.96" shape="10324.62,4011.12 10325.94,4013.57"/>
        <lane id=":J13_2_1_1" index="1" allow="private emergency authority army vip passenger hov taxi bus coach delivery truck trailer motorcycle evehicle custom1 custom2" speed="32.00" length="2.96" shape="10321.78,4012.59 10323.15,4015.14"/>
        <lane id=":J13_2_1_2" index="2" allow="private emergency authority army vip passenger hov taxi bus coach delivery truck trailer motorcycle evehicle custom1 custom2" speed="32.00" length="2.96" shape="10318.93,4014.06 10320.37,4016.72"/>
        <lane id=":J13_2_1_3" index="3" allow="private emergency authority army vip passenger hov taxi bus coach delivery truck trailer motorcycle evehicle custom1 custom2" speed="32.00" length="2.96" shape="10316.09,4015.53 10317.58,4018.29"/>
    </edge>
    <edge id=":J13_3_0" function="internal">
        <lane id=":J13_3_0_0" index="0" allow="private emergency authority army vip passenger hov taxi bus coach delivery truck trailer motorcycle evehicle custom1 custom2" speed="32.00" length="8.40" shape="10484.69,4294.89 10486.55,4296.68 10488.66,4297.04 10490.79,4297.39 10492.72,4299.13"/>
        <lane id=":J13_3_0_1" index="1" allow="private emergency authority army vip passenger hov taxi bus coach delivery truck trailer motorcycle evehicle custom1 custom2" speed="32.00" length="8.40" shape="10484.69,4294.89 10486.05,4296.79 10487.30,4297.86 10488.57,4298.92 10489.99,4300.79"/>
        <lane id=":J13_3_0_2" index="2" allow="private emergency authority army vip passenger hov taxi bus coach delivery truck trailer motorcycle evehicle custom1 custom2" speed="32.00" length="8.40" shape="10481.90,4296.46 10483.27,4298.39 10484.53,4299.48 10485.81,4300.56 10487.25,4302.45"/>
        <lane id=":J13_3_0_3" index="3" allow="private emergency authority army vip passenger hov taxi bus coach delivery truck trailer motorcycle evehicle custom1 custom2" speed="32.00" length="8.40" shape="10479.11,4298.03 10480.50,4299.99 10481.77,4301.09 10483.06,4302.19 10484.52,4304.11"/>
        <lane id=":J13_3_0_4" index="4" allow="private emergency authority army vip passenger hov taxi bus coach delivery truck trailer motorcycle evehicle custom1 custom2" speed="32.00" length="8.40" shape="10476.32,4299.60 10477.73,4301.58 10479.01,4302.71 10480.31,4303.82 10481.78,4305.77"/>
        <lane id=":J13_3_0_5" index="5" allow="private emergency authority army vip passenger hov taxi bus coach delivery truck trailer motorcycle evehicle custom1 custom2" speed="32.00" length="8.40" shape="10473.54,4301.17 10474.96,4303.18 10476.25,4304.33 10477.56,4305.46 10479.04,4307.43"/>
    </edge>
    <edge id=":J13_4_0" function="internal">
        <lane id=":J13_4_0_0" index="0" allow="private emergency authority army vip passenger hov taxi bus coach delivery truck trailer motorcycle evehicle custom1 custom2" speed="32.00" length="3.55" shape="10565.40,4421.89 10567.18,4424.96"/>
        <lane id=":J13_4_0_1" index="1" allow="private emergency authority army vip passenger hov taxi bus coach delivery truck trailer motorcycle evehicle custom1 custom2" speed="32.00" length="3.55" shape="10562.63,4423.49 10564.41,4426.56"/>
        <lane id=":J13_4_0_2" index="2" allow="private emergency authority army vip passenger hov taxi bus coach delivery truck trailer motorcycle evehicle custom1 custom2" speed="32.00" length="3.55" shape="10559.86,4425.10 10561.64,4428.17"/>
    </edge>
    <edge id=":J13_4_3" function="internal">
        <lane id=":J13_4_3_0" index="0" allow="private emergency authority army vip passenger hov taxi bus coach delivery truck trailer motorcycle evehicle custom1 custom2" speed="32.00" length="3.89" shape="10557.09,4426.70 10557.67,4427.70 10558.05,4428.40 10558.39,4429.11 10558.85,4430.17"/>
        <lane id=":J13_4_3_1" index="1" allow="private emergency authority army vip passenger hov taxi bus coach delivery truck trailer motorcycle evehicle custom1 custom2" speed="32.00" length="3.53" shape="10554.33,4428.31 10554.85,4429.22 10555.19,4429.85 10555.50,4430.50 10555.93,4431.46"/>
        <lane id=":J13_4_3_2" index="2" allow="private emergency authority army vip passenger hov taxi bus coach delivery truck trailer motorcycle evehicle custom1 custom2" speed="32.00" length="3.18" shape="10551.56,4429.91 10552.03,4430.73 10552.34,4431.30 10552.61,4431.88 10553.00,4432.74"/>
    </edge>
    <edge id=":J13_5_0" function="internal">
        <lane id=":J13_5_0_0" index="0" allow="private emergency authority army vip passenger hov taxi bus coach delivery truck trailer motorcycle evehicle custom1 custom2" speed="32.00" length="6.65" shape="10982.48,5308.21 10983.40,5311.06"/>
        <lane id=":J13_5_0_1" index="1" allow="private emergency authority army vip passenger hov taxi bus coach delivery truck trailer motorcycle evehicle custom1 custom2" speed="32.00" length="6.65" shape="10982.48,5308.21 10977.32,5313.08"/>
        <lane id=":J13_5_0_2" index="2" allow="private emergency authority army vip passenger hov taxi bus coach delivery truck trailer motorcycle evehicle custom1 custom2" speed="32.00" length="6.65" shape="10982.48,5308.21 10974.28,5314.09"/>
        <lane id=":J13_5_0_3" index="3" allow="private emergency authority army vip passenger hov taxi bus coach delivery truck trailer motorcycle evehicle custom1 custom2" speed="32.00" length="6.65" shape="10979.44,5309.22 10980.36,5312.07"/>
        <lane id=":J13_5_0_4" index="4" allow="private emergency authority army vip passenger hov taxi bus coach delivery truck trailer motorcycle evehicle custom1 custom2" speed="32.00" length="6.65" shape="10979.44,5309.22 10971.25,5315.10"/>
    </edge>
    <edge id=":J13_5_5" function="internal">
        <lane id=":J13_5_5_0" index="0" allow="private emergency authority army vip passenger hov taxi bus coach delivery truck trailer motorcycle evehicle custom1 custom2" speed="32.00" length="5.72" shape="10976.37,5310.23 10983.40,5311.06"/>
        <lane id=":J13_5_5_1" index="1" allow="private emergency authority army vip passenger hov taxi bus coach delivery truck trailer motorcycle evehicle custom1 custom2" speed="32.00" length="5.72" shape="10973.34,5311.24 10980.36,5312.07"/>
        <lane id=":J13_5_5_2" index="2" allow="private emergency authority army vip passenger hov taxi bus coach delivery truck trailer motorcycle evehicle custom1 custom2" speed="32.00" length="5.72" shape="10970.30,5312.25 10977.32,5313.08"/>
        <lane id=":J13_5_5_3" index="3" allow="private emergency authority army vip passenger hov taxi bus coach delivery truck trailer motorcycle evehicle custom1 custom2" speed="32.00" length="5.72" shape="10970.30,5312.25 10974.28,5314.09"/>
        <lane id=":J13_5_5_4" index="4" allow="private emergency authority army vip passenger hov taxi bus coach delivery truck trailer motorcycle evehicle custom1 custom2" speed="32.00" length="5.72" shape="10970.30,5312.25 10971.25,5315.10"/>
    </edge>
    <edge id=":J13_6_0" function="internal">
        <lane id=":J13_6_0_0" index="0" allow="private emergency authority army vip passenger hov taxi bus coach delivery truck trailer motorcycle evehicle custom1 custom2" speed="32.00" length="7.94" shape="10997.69,5364.23 11000.12,5371.92"/>
        <lane id=":J13_6_0_1" index="1" allow="private emergency authority army vip passenger hov taxi bus coach delivery truck trailer motorcycle evehicle custom1 custom2" speed="32.00" length="7.94" shape="10994.65,5365.24 10997.06,5372.85"/>
        <lane id=":J13_6_0_2" index="2" allow="private emergency authority army vip passenger hov taxi bus coach delivery truck trailer motorcycle evehicle custom1 custom2" speed="32.00" length="7.94" shape="10991.62,5366.24 10993.99,5373.77"/>
        <lane id=":J13_6_0_3" index="3" allow="private emergency authority army vip passenger hov taxi bus coach delivery truck trailer motorcycle evehicle custom1 custom2" speed="32.00" length="7.94" shape="10988.58,5367.25 10990.93,5374.69"/>
    </edge>
    <edge id=":J14_1_0" function="internal">
        <lane id=":J14_1_0_0" index="0" allow="private emergency authority army vip passenger hov taxi bus coach delivery truck trailer motorcycle evehicle custom1 custom2" speed="32.00" length="2.72" shape="11293.23,6302.56 11294.10,6305.14"/>
    </edge>
    <edge id=":J14_1_1" function="internal">
        <lane id=":J14_1_1_0" index="0" allow="private emergency authority army vip passenger hov taxi bus coach delivery truck trailer motorcycle evehicle custom1 custom2" speed="32.00" length="3.04" shape="11290.18,6303.52 11291.01,6306.27"/>
        <lane id=":J14_1_1_1" index="1" allow="private emergency authority army vip passenger hov taxi bus coach delivery truck trailer motorcycle evehicle custom1 custom2" speed="32.00" length="3.04" shape="11287.12,6304.47 11288.00,6307.38"/>
        <lane id=":J14_1_1_2" index="2" allow="private emergency authority army vip passenger hov taxi bus coach delivery truck trailer motorcycle evehicle custom1 custom2" speed="32.00" length="3.04" shape="11284.07,6305.42 11284.99,6308.48"/>
    </edge>
    <edge id=":J14_2_0" function="internal">
        <lane id=":J14_2_0_0" index="0" allow="private emergency authority army vip passenger hov taxi bus coach delivery truck trailer motorcycle evehicle custom1 custom2" speed="32.00" length="3.53" shape="11426.96,6757.42 11427.94,6760.81"/>
    </edge>
    <edge id=":J14_2_1" function="internal">
        <lane id=":J14_2_1_0" index="0" allow="private emergency authority army vip passenger hov taxi bus coach delivery truck trailer motorcycle evehicle custom1 custom2" speed="32.00" length="3.49" shape="11423.65,6758.05 11424.06,6759.11 11424.32,6759.84 11424.55,6760.58 11424.86,6761.67"/>
        <lane id=":J14_2_1_1" index="1" allow="private emergency authority army vip passenger hov taxi bus coach delivery truck trailer motorcycle evehicle custom1 custom2" speed="32.00" length="3.49" shape="11420.67,6759.22 11421.04,6760.19 11421.28,6760.86 11421.49,6761.54 11421.78,6762.53"/>
        <lane id=":J14_2_1_2" index="2" allow="private emergency authority army vip passenger hov taxi bus coach delivery truck trailer motorcycle evehicle custom1 custom2" speed="32.00" length="3.49" shape="11417.69,6760.40 11418.03,6761.27 11418.25,6761.87 11418.44,6762.49 11418.69,6763.39"/>
    </edge>
    <edge id=":J14_3_0" function="internal">
        <lane id=":J14_3_0_0" index="0" allow="private emergency authority army vip passenger hov taxi bus coach delivery truck trailer motorcycle evehicle custom1 custom2" speed="32.00" length="7.98" shape="11475.70,6966.62 11477.33,6974.47"/>
        <lane id=":J14_3_0_1" index="1" allow="private emergency authority army vip passenger hov taxi bus coach delivery truck trailer motorcycle evehicle custom1 custom2" speed="32.00" length="7.98" shape="11472.57,6967.28 11474.19,6975.10"/>
        <lane id=":J14_3_0_2" index="2" allow="private emergency authority army vip passenger hov taxi bus coach delivery truck trailer motorcycle evehicle custom1 custom2" speed="32.00" length="7.98" shape="11469.44,6967.95 11471.06,6975.73"/>
    </edge>
    <edge id=":J14_4_0" function="internal">
        <lane id=":J14_4_0_0" index="0" allow="private emergency authority army vip passenger hov taxi bus coach delivery truck trailer motorcycle evehicle custom1 custom2" speed="32.00" length="0.27" shape="11484.82,7011.87 11484.89,7012.21"/>
        <lane id=":J14_4_0_1" index="1" allow="private emergency authority army vip passenger hov taxi bus coach delivery truck trailer motorcycle evehicle custom1 custom2" speed="32.00" length="0.27" shape="11481.68,7012.50 11481.73,7012.76"/>
        <lane id=":J14_4_0_2" index="2" allow="private emergency authority army vip passenger hov taxi bus coach delivery truck trailer motorcycle evehicle custom1 custom2" speed="32.00" length="0.27" shape="11478.55,7013.13 11478.58,7013.32"/>
    </edge>
    <edge id=":J14_5_0" function="internal">
        <lane id=":J14_5_0_0" index="0" allow="private emergency authority army vip passenger hov taxi bus coach delivery truck trailer motorcycle evehicle custom1 custom2" speed="32.00" length="8.20" shape="11523.34,7830.73 11523.65,7833.22 11524.64,7834.82 11525.63,7836.43 11525.96,7838.91"/>
        <lane id=":J14_5_0_1" index="1" allow="private emergency authority army vip passenger hov taxi bus coach delivery truck trailer motorcycle evehicle custom1 custom2" speed="32.00" length="8.20" shape="11523.34,7830.73 11522.77,7838.70"/>
        <lane id=":J14_5_0_2" index="2" allow="private emergency authority army vip passenger hov taxi bus coach delivery truck trailer motorcycle evehicle custom1 custom2" speed="32.00" length="8.20" shape="11520.14,7830.50 11519.58,7838.48"/>
        <lane id=":J14_5_0_3" index="3" allow="private emergency authority army vip passenger hov taxi bus coach delivery truck trailer motorcycle evehicle custom1 custom2" speed="32.00" length="8.20" shape="11516.95,7830.26 11516.38,7838.27"/>
    </edge>
    <edge id=":J15_1_0" function="internal">
        <lane id=":J15_1_0_0" index="0" allow="private emergency authority army vip passenger hov taxi bus coach delivery truck trailer motorcycle evehicle custom1 custom2" speed="32.00" length="2.88" shape="11189.80,8927.34 11188.52,8929.92"/>
    </edge>
    <edge id=":J15_1_1" function="internal">
        <lane id=":J15_1_1_0" index="0" allow="private emergency authority army vip passenger hov taxi bus coach delivery truck trailer motorcycle evehicle custom1 custom2" speed="32.00" length="3.04" shape="11186.95,8925.88 11185.58,8928.50"/>
        <lane id=":J15_1_1_1" index="1" allow="private emergency authority army vip passenger hov taxi bus coach delivery truck trailer motorcycle evehicle custom1 custom2" speed="32.00" length="3.04" shape="11184.11,8924.42 11182.69,8927.11"/>
        <lane id=":J15_1_1_2" index="2" allow="private emergency authority army vip passenger hov taxi bus coach delivery truck trailer motorcycle evehicle custom1 custom2" speed="32.00" length="3.04" shape="11181.26,8922.96 11179.81,8925.72"/>
    </edge>
    <edge id=":J15_2_0" function="internal">
        <lane id=":J15_2_0_0" index="0" allow="private emergency authority army vip passenger hov taxi bus coach delivery truck trailer motorcycle evehicle custom1 custom2" speed="32.00" length="3.03" shape="10826.32,9588.30 10824.80,9590.92"/>
    </edge>
    <edge id=":J15_2_1" function="internal">
        <lane id=":J15_2_1_0" index="0" allow="private emergency authority army vip passenger hov taxi bus coach delivery truck trailer motorcycle evehicle custom1 custom2" speed="32.00" length="2.99" shape="10823.47,9586.72 10822.01,9589.36"/>
        <lane id=":J15_2_1_1" index="1" allow="private emergency authority army vip passenger hov taxi bus coach delivery truck trailer motorcycle evehicle custom1 custom2" speed="32.00" length="2.99" shape="10820.67,9585.17 10819.22,9587.79"/>
        <lane id=":J15_2_1_2" index="2" allow="private emergency authority army vip passenger hov taxi bus coach delivery truck trailer motorcycle evehicle custom1 custom2" speed="32.00" length="2.99" shape="10817.87,9583.62 10816.43,9586.22"/>
    </edge>
    <edge id=":J15_3_0" function="internal">
        <lane id=":J15_3_0_0" index="0" allow="private emergency authority army vip passenger hov taxi bus coach delivery truck trailer motorcycle evehicle custom1 custom2" speed="32.00" length="7.98" shape="10696.07,9813.09 10692.05,9820.03"/>